digraph "" {
	graph [bgcolor="#FAFBFC",
		fontname=Helvetica,
		fontsize=18,
		label="TTL Graph: battery-passport.ttl",
		labeljust=c,
		labelloc=t,
		nodesep=0.4,
		overlap=false,
		pad=0.35,
		rankdir=LR,
		ranksep=0.9,
		splines=true
	];
	node [fontname=Helvetica,
		fontsize=10,
		label="\N",
		margin="0.12,0.06",
		penwidth=1.2,
		shape=box,
		style="filled,rounded"
	];
	edge [arrowsize=0.75,
		color="#4A5568",
		fontname=Helvetica,
		fontsize=9,
		penwidth=1.2
	];
	"uri::https://example.org/battery/LSDYNA_R14"	[color="#1976D2",
		fillcolor="#E3F2FD",
		fontcolor="#0D47A1",
		label="ex:LSDYNA_R14"];
	"uri::https://w3id.org/sdata/core/InformationAgent"	[color="#7E57C2",
		fillcolor="#F3E8FF",
		fontcolor="#4527A0",
		label="sdata:InformationAgent"];
	"uri::https://example.org/battery/LSDYNA_R14" -> "uri::https://w3id.org/sdata/core/InformationAgent"	[label="rdf:type"];
	"lit::Solver::::"	[color="#B08900",
		fillcolor="#FFF9DB",
		fontcolor="#5C4500",
		label=Solver,
		shape=note];
	"uri::https://example.org/battery/LSDYNA_R14" -> "lit::Solver::::"	[label="sdata:agentType"];
	"uri::https://example.org/battery/HPCCluster"	[color="#1976D2",
		fillcolor="#E3F2FD",
		fontcolor="#0D47A1",
		label="ex:HPCCluster"];
	"uri::https://example.org/battery/LSDYNA_R14" -> "uri::https://example.org/battery/HPCCluster"	[label="sdata:hostedAt"];
	"lit::LS-DYNA R14::::"	[color="#B08900",
		fillcolor="#FFF9DB",
		fontcolor="#5C4500",
		label="LS-DYNA R14",
		shape=note];
	"uri::https://example.org/battery/LSDYNA_R14" -> "lit::LS-DYNA R14::::"	[label="sdata:name"];
	"uri::https://example.org/battery/PackAssemblyProcess"	[color="#1976D2",
		fillcolor="#E3F2FD",
		fontcolor="#0D47A1",
		label="ex:PackAssemblyProcess"];
	"lit::Pack-Montage VP-BAT-2026-000001::::"	[color="#B08900",
		fillcolor="#FFF9DB",
		fontcolor="#5C4500",
		label="Pack-Montage VP-BAT-2026-000001",
		shape=note];
	"uri::https://example.org/battery/PackAssemblyProcess" -> "lit::Pack-Montage VP-BAT-2026-000001::::"	[label="sdata:name"];
	"uri::https://example.org/battery/PackAssemblyHall3"	[color="#1976D2",
		fillcolor="#E3F2FD",
		fontcolor="#0D47A1",
		label="ex:PackAssemblyHall3"];
	"uri::https://example.org/battery/PackAssemblyProcess" -> "uri::https://example.org/battery/PackAssemblyHall3"	[label="sdata:locatedAt"];
	"uri::https://example.org/battery/BatteryPack001"	[color="#1976D2",
		fillcolor="#E3F2FD",
		fontcolor="#0D47A1",
		label="ex:BatteryPack001"];
	"uri::https://example.org/battery/PackAssemblyProcess" -> "uri::https://example.org/battery/BatteryPack001"	[label="sdata:generates"];
	"lit::2026-01-15T15:30:00Z::http://www.w3.org/2001/XMLSchema#dateTimeStamp::"	[color="#B08900",
		fillcolor="#FFF9DB",
		fontcolor="#5C4500",
		label="2026-01-15T15:30:00Z",
		shape=note];
	"uri::https://example.org/battery/PackAssemblyProcess" -> "lit::2026-01-15T15:30:00Z::http://www.w3.org/2001/XMLSchema#dateTimeStamp::"	[label="prov:endedAtTime"];
	"lit::2026-01-15T07:00:00Z::http://www.w3.org/2001/XMLSchema#dateTimeStamp::"	[color="#B08900",
		fillcolor="#FFF9DB",
		fontcolor="#5C4500",
		label="2026-01-15T07:00:00Z",
		shape=note];
	"uri::https://example.org/battery/PackAssemblyProcess" -> "lit::2026-01-15T07:00:00Z::http://www.w3.org/2001/XMLSchema#dateTimeStamp::"	[label="prov:startedAtTime"];
	"uri::https://example.org/battery/NMC811Cathode"	[color="#1976D2",
		fillcolor="#E3F2FD",
		fontcolor="#0D47A1",
		label="ex:NMC811Cathode"];
	"uri::https://example.org/battery/PackAssemblyProcess" -> "uri::https://example.org/battery/NMC811Cathode"	[label="sdata:consumes"];
	"uri::https://w3id.org/sdata/core/MaterialProcess"	[color="#7E57C2",
		fillcolor="#F3E8FF",
		fontcolor="#4527A0",
		label="sdata:MaterialProcess"];
	"uri::https://example.org/battery/PackAssemblyProcess" -> "uri::https://w3id.org/sdata/core/MaterialProcess"	[label="rdf:type"];
	"uri::https://example.org/battery/OperatorMueller"	[color="#1976D2",
		fillcolor="#E3F2FD",
		fontcolor="#0D47A1",
		label="ex:OperatorMueller"];
	"uri::https://example.org/battery/PackAssemblyProcess" -> "uri::https://example.org/battery/OperatorMueller"	[label="sdata:wasPerformedBy"];
	"lit::51.0506,13.7375::::"	[color="#B08900",
		fillcolor="#FFF9DB",
		fontcolor="#5C4500",
		label="51.0506,13.7375",
		shape=note];
	"uri::https://example.org/battery/PackAssemblyHall3" -> "lit::51.0506,13.7375::::"	[label="sdata:geoCoordinates"];
	"lit::Halle 3::::"	[color="#B08900",
		fillcolor="#FFF9DB",
		fontcolor="#5C4500",
		label="Halle 3",
		shape=note];
	"uri::https://example.org/battery/PackAssemblyHall3" -> "lit::Halle 3::::"	[label="sdata:name"];
	"uri::https://w3id.org/sdata/core/MaterialSite"	[color="#7E57C2",
		fillcolor="#F3E8FF",
		fontcolor="#4527A0",
		label="sdata:MaterialSite"];
	"uri::https://example.org/battery/PackAssemblyHall3" -> "uri::https://w3id.org/sdata/core/MaterialSite"	[label="rdf:type"];
	"uri::https://example.org/battery/ModuleM01"	[color="#1976D2",
		fillcolor="#E3F2FD",
		fontcolor="#0D47A1",
		label="ex:ModuleM01"];
	"uri::https://example.org/battery/ModuleM01" -> "uri::https://example.org/battery/PackAssemblyHall3"	[label="sdata:locatedAt"];
	"uri::https://w3id.org/sdata/core/MaterialArtifact"	[color="#7E57C2",
		fillcolor="#F3E8FF",
		fontcolor="#4527A0",
		label="sdata:MaterialArtifact"];
	"uri::https://example.org/battery/ModuleM01" -> "uri::https://w3id.org/sdata/core/MaterialArtifact"	[label="rdf:type"];
	"lit::Module M01::::"	[color="#B08900",
		fillcolor="#FFF9DB",
		fontcolor="#5C4500",
		label="Module M01",
		shape=note];
	"uri::https://example.org/battery/ModuleM01" -> "lit::Module M01::::"	[label="sdata:name"];
	"uri::https://example.org/battery/BatteryPack001Serial"	[color="#1976D2",
		fillcolor="#E3F2FD",
		fontcolor="#0D47A1",
		label="ex:BatteryPack001Serial"];
	"uri::https://example.org/battery/ModuleM01" -> "uri::https://example.org/battery/BatteryPack001Serial"	[label="sdata:hasIdentifier"];
	"uri::https://example.org/battery/BatteryPassport001"	[color="#1976D2",
		fillcolor="#E3F2FD",
		fontcolor="#0D47A1",
		label="ex:BatteryPassport001"];
	"uri::https://example.org/battery/DPPUriId"	[color="#1976D2",
		fillcolor="#E3F2FD",
		fontcolor="#0D47A1",
		label="ex:DPPUriId"];
	"uri::https://example.org/battery/BatteryPassport001" -> "uri::https://example.org/battery/DPPUriId"	[label="sdata:hasIdentifier"];
	"uri::https://example.org/battery/BatteryPassport001" -> "uri::https://example.org/battery/BatteryPack001"	[label="sdata:represents"];
	"uri::https://example.org/battery/DPPBackend"	[color="#1976D2",
		fillcolor="#E3F2FD",
		fontcolor="#0D47A1",
		label="ex:DPPBackend"];
	"uri::https://example.org/battery/BatteryPassport001" -> "uri::https://example.org/battery/DPPBackend"	[label="sdata:hostedAt"];
	"uri::https://example.org/battery/SensorRawData"	[color="#1976D2",
		fillcolor="#E3F2FD",
		fontcolor="#0D47A1",
		label="ex:SensorRawData"];
	"uri::https://example.org/battery/BatteryPassport001" -> "uri::https://example.org/battery/SensorRawData"	[label="sdata:consistsOf"];
	"lit::2026-01-15T08:00:00Z::http://www.w3.org/2001/XMLSchema#dateTimeStamp::"	[color="#B08900",
		fillcolor="#FFF9DB",
		fontcolor="#5C4500",
		label="2026-01-15T08:00:00Z",
		shape=note];
	"uri::https://example.org/battery/BatteryPassport001" -> "lit::2026-01-15T08:00:00Z::http://www.w3.org/2001/XMLSchema#dateTimeStamp::"	[label="sdata:validFrom"];
	"lit::EU Digital Product Passport::::"	[color="#B08900",
		fillcolor="#FFF9DB",
		fontcolor="#5C4500",
		label="EU Digital Product Passport",
		shape=note];
	"uri::https://example.org/battery/BatteryPassport001" -> "lit::EU Digital Product Passport::::"	[label="sdata:description"];
	"uri::https://example.org/battery/ProductPassportRole"	[color="#1976D2",
		fillcolor="#E3F2FD",
		fontcolor="#0D47A1",
		label="ex:ProductPassportRole"];
	"uri::https://example.org/battery/BatteryPassport001" -> "uri::https://example.org/battery/ProductPassportRole"	[label="sdata:realizes"];
	"uri::https://w3id.org/sdata/core/InformationArtifact"	[color="#7E57C2",
		fillcolor="#F3E8FF",
		fontcolor="#4527A0",
		label="sdata:InformationArtifact"];
	"uri::https://example.org/battery/BatteryPassport001" -> "uri::https://w3id.org/sdata/core/InformationArtifact"	[label="rdf:type"];
	"lit::0.3.0::::"	[color="#B08900",
		fillcolor="#FFF9DB",
		fontcolor="#5C4500",
		label="0.3.0",
		shape=note];
	"uri::https://example.org/battery/BatteryPassport001" -> "lit::0.3.0::::"	[label="sdata:version"];
	"lit::Battery Passport VP-BAT-2026-000001::::"	[color="#B08900",
		fillcolor="#FFF9DB",
		fontcolor="#5C4500",
		label="Battery Passport VP-BAT-2026-000001",
		shape=note];
	"uri::https://example.org/battery/BatteryPassport001" -> "lit::Battery Passport VP-BAT-2026-000001::::"	[label="sdata:name"];
	"uri::https://w3id.org/sdata/core/Identifier"	[color="#7E57C2",
		fillcolor="#F3E8FF",
		fontcolor="#4527A0",
		label="sdata:Identifier"];
	"uri::https://example.org/battery/DPPUriId" -> "uri::https://w3id.org/sdata/core/Identifier"	[label="rdf:type"];
	"lit::urn:voltpack:dpp:VP-BAT-2026-000001::::"	[color="#B08900",
		fillcolor="#FFF9DB",
		fontcolor="#5C4500",
		label="urn:voltpack:dpp:VP-BAT-2026-000001",
		shape=note];
	"uri::https://example.org/battery/DPPUriId" -> "lit::urn:voltpack:dpp:VP-BAT-2026-000001::::"	[label="sdata:identifierValue"];
	"lit::URI::::"	[color="#B08900",
		fillcolor="#FFF9DB",
		fontcolor="#5C4500",
		label=URI,
		shape=note];
	"uri::https://example.org/battery/DPPUriId" -> "lit::URI::::"	[label="sdata:identifierType"];
	"uri::https://example.org/battery/CrashSimulationV3"	[color="#1976D2",
		fillcolor="#E3F2FD",
		fontcolor="#0D47A1",
		label="ex:CrashSimulationV3"];
	"uri::https://example.org/battery/CrashSimulationV3" -> "uri::https://example.org/battery/LSDYNA_R14"	[label="sdata:wasPerformedBy"];
	"uri::https://example.org/battery/CrashSimulationV3" -> "uri::https://example.org/battery/BatteryPassport001"	[label="sdata:consumes"];
	"uri::https://example.org/battery/CrashSimulationV3" -> "uri::https://example.org/battery/HPCCluster"	[label="sdata:hostedAt"];
	"lit::Crash-Simulation v3::::"	[color="#B08900",
		fillcolor="#FFF9DB",
		fontcolor="#5C4500",
		label="Crash-Simulation v3",
		shape=note];
	"uri::https://example.org/battery/CrashSimulationV3" -> "lit::Crash-Simulation v3::::"	[label="sdata:name"];
	"uri::https://example.org/battery/SimulationReportV3"	[color="#1976D2",
		fillcolor="#E3F2FD",
		fontcolor="#0D47A1",
		label="ex:SimulationReportV3"];
	"uri::https://example.org/battery/CrashSimulationV3" -> "uri::https://example.org/battery/SimulationReportV3"	[label="sdata:generates"];
	"lit::2026-02-25T16:00:00Z::http://www.w3.org/2001/XMLSchema#dateTimeStamp::"	[color="#B08900",
		fillcolor="#FFF9DB",
		fontcolor="#5C4500",
		label="2026-02-25T16:00:00Z",
		shape=note];
	"uri::https://example.org/battery/CrashSimulationV3" -> "lit::2026-02-25T16:00:00Z::http://www.w3.org/2001/XMLSchema#dateTimeStamp::"	[label="prov:endedAtTime"];
	"lit::2026-02-25T14:00:00Z::http://www.w3.org/2001/XMLSchema#dateTimeStamp::"	[color="#B08900",
		fillcolor="#FFF9DB",
		fontcolor="#5C4500",
		label="2026-02-25T14:00:00Z",
		shape=note];
	"uri::https://example.org/battery/CrashSimulationV3" -> "lit::2026-02-25T14:00:00Z::http://www.w3.org/2001/XMLSchema#dateTimeStamp::"	[label="prov:startedAtTime"];
	"uri::https://w3id.org/sdata/core/InformationProcess"	[color="#7E57C2",
		fillcolor="#F3E8FF",
		fontcolor="#4527A0",
		label="sdata:InformationProcess"];
	"uri::https://example.org/battery/CrashSimulationV3" -> "uri::https://w3id.org/sdata/core/InformationProcess"	[label="rdf:type"];
	"uri::https://example.org/battery/ZwickZ100"	[color="#1976D2",
		fillcolor="#E3F2FD",
		fontcolor="#0D47A1",
		label="ex:ZwickZ100"];
	"lit::Zwick Z100::::"	[color="#B08900",
		fillcolor="#FFF9DB",
		fontcolor="#5C4500",
		label="Zwick Z100",
		shape=note];
	"uri::https://example.org/battery/ZwickZ100" -> "lit::Zwick Z100::::"	[label="sdata:name"];
	"uri::https://example.org/battery/PackAssembly"	[color="#1976D2",
		fillcolor="#E3F2FD",
		fontcolor="#0D47A1",
		label="ex:PackAssembly"];
	"uri::https://example.org/battery/ZwickZ100" -> "uri::https://example.org/battery/PackAssembly"	[label="sdata:locatedAt"];
	"uri::https://w3id.org/sdata/core/MaterialAgent"	[color="#7E57C2",
		fillcolor="#F3E8FF",
		fontcolor="#4527A0",
		label="sdata:MaterialAgent"];
	"uri::https://example.org/battery/ZwickZ100" -> "uri::https://w3id.org/sdata/core/MaterialAgent"	[label="rdf:type"];
	"lit::Machine::::"	[color="#B08900",
		fillcolor="#FFF9DB",
		fontcolor="#5C4500",
		label=Machine,
		shape=note];
	"uri::https://example.org/battery/ZwickZ100" -> "lit::Machine::::"	[label="sdata:agentType"];
	"uri::https://example.org/battery/BatteryPack001" -> "uri::https://example.org/battery/ModuleM01"	[label="sdata:hasPart"];
	"uri::https://example.org/battery/BatteryPack001" -> "uri::https://w3id.org/sdata/core/MaterialArtifact"	[label="rdf:type"];
	"uri::https://example.org/battery/BatteryPack001" -> "uri::https://example.org/battery/PackAssembly"	[label="sdata:locatedAt"];
	"lit::VoltPack 96S Battery Pack::::"	[color="#B08900",
		fillcolor="#FFF9DB",
		fontcolor="#5C4500",
		label="VoltPack 96S Battery Pack",
		shape=note];
	"uri::https://example.org/battery/BatteryPack001" -> "lit::VoltPack 96S Battery Pack::::"	[label="sdata:name"];
	"uri::https://example.org/battery/BatteryPack001" -> "uri::https://example.org/battery/BatteryPack001Serial"	[label="sdata:hasIdentifier"];
	"uri::https://example.org/battery/BatteryPack001" -> "uri::https://example.org/battery/NMC811Cathode"	[label="sdata:consistsOf"];
	"lit::Automotive battery pack::::"	[color="#B08900",
		fillcolor="#FFF9DB",
		fontcolor="#5C4500",
		label="Automotive battery pack",
		shape=note];
	"uri::https://example.org/battery/BatteryPack001" -> "lit::Automotive battery pack::::"	[label="sdata:description"];
	"uri::https://example.org/battery/DPPBackend" -> "uri::https://example.org/battery/PackAssembly"	[label="sdata:locatedAt"];
	"uri::https://example.org/battery/ServerRack01"	[color="#1976D2",
		fillcolor="#E3F2FD",
		fontcolor="#0D47A1",
		label="ex:ServerRack01"];
	"uri::https://example.org/battery/DPPBackend" -> "uri::https://example.org/battery/ServerRack01"	[label="sdata:hostedOn"];
	"lit::https://dpp.voltpack.example/api::http://www.w3.org/2001/XMLSchema#anyURI::"	[color="#B08900",
		fillcolor="#FFF9DB",
		fontcolor="#5C4500",
		label="https://dpp.voltpack.example/api",
		shape=note];
	"uri::https://example.org/battery/DPPBackend" -> "lit::https://dpp.voltpack.example/api::http://www.w3.org/2001/XMLSchema#anyURI::"	[label="sdata:endpoint"];
	"uri::https://w3id.org/sdata/core/InformationSite"	[color="#7E57C2",
		fillcolor="#F3E8FF",
		fontcolor="#4527A0",
		label="sdata:InformationSite"];
	"uri::https://example.org/battery/DPPBackend" -> "uri::https://w3id.org/sdata/core/InformationSite"	[label="rdf:type"];
	"lit::DPP Backend::::"	[color="#B08900",
		fillcolor="#FFF9DB",
		fontcolor="#5C4500",
		label="DPP Backend",
		shape=note];
	"uri::https://example.org/battery/DPPBackend" -> "lit::DPP Backend::::"	[label="sdata:name"];
	"uri::https://example.org/battery/PackAssembly" -> "uri::https://example.org/battery/PackAssemblyHall3"	[label="sdata:containsSite"];
	"lit::VoltPack Montage Dresden::::"	[color="#B08900",
		fillcolor="#FFF9DB",
		fontcolor="#5C4500",
		label="VoltPack Montage Dresden",
		shape=note];
	"uri::https://example.org/battery/PackAssembly" -> "lit::VoltPack Montage Dresden::::"	[label="sdata:name"];
	"uri::https://example.org/battery/PackAssembly" -> "uri::https://w3id.org/sdata/core/MaterialSite"	[label="rdf:type"];
	"lit::Tesla Str. 19, 01309 Dresden, Germany::::"	[color="#B08900",
		fillcolor="#FFF9DB",
		fontcolor="#5C4500",
		label="Tesla Str. 19, 01309 Dresden, Germany",
		shape=note];
	"uri::https://example.org/battery/PackAssembly" -> "lit::Tesla Str. 19, 01309 Dresden, Germany::::"	[label="sdata:address"];
	"lit::51.0504,13.7373::::"	[color="#B08900",
		fillcolor="#FFF9DB",
		fontcolor="#5C4500",
		label="51.0504,13.7373",
		shape=note];
	"uri::https://example.org/battery/PackAssembly" -> "lit::51.0504,13.7373::::"	[label="sdata:geoCoordinates"];
	"uri::https://example.org/battery/SensorRawData" -> "uri::https://example.org/battery/BatteryPassport001"	[label="sdata:derivedFrom"];
	"lit::Raw Sensor Data Stream::::"	[color="#B08900",
		fillcolor="#FFF9DB",
		fontcolor="#5C4500",
		label="Raw Sensor Data Stream",
		shape=note];
	"uri::https://example.org/battery/SensorRawData" -> "lit::Raw Sensor Data Stream::::"	[label="sdata:name"];
	"uri::https://example.org/battery/SensorRawData" -> "uri::https://example.org/battery/HPCCluster"	[label="sdata:hostedAt"];
	"lit::High-frequency vibration telemetry stream.::::"	[color="#B08900",
		fillcolor="#FFF9DB",
		fontcolor="#5C4500",
		label="High-frequency vibration telemetry stream.",
		shape=note];
	"uri::https://example.org/battery/SensorRawData" -> "lit::High-frequency vibration telemetry stream.::::"	[label="sdata:description"];
	"uri::https://w3id.org/sdata/core/Information"	[color="#7E57C2",
		fillcolor="#F3E8FF",
		fontcolor="#4527A0",
		label="sdata:Information"];
	"uri::https://example.org/battery/SensorRawData" -> "uri::https://w3id.org/sdata/core/Information"	[label="rdf:type"];
	"uri::https://example.org/battery/HPCCluster" -> "uri::https://example.org/battery/PackAssembly"	[label="sdata:locatedAt"];
	"lit::https://hpc.voltpack.example::http://www.w3.org/2001/XMLSchema#anyURI::"	[color="#B08900",
		fillcolor="#FFF9DB",
		fontcolor="#5C4500",
		label="https://hpc.voltpack.example",
		shape=note];
	"uri::https://example.org/battery/HPCCluster" -> "lit::https://hpc.voltpack.example::http://www.w3.org/2001/XMLSchema#anyURI::"	[label="sdata:endpoint"];
	"uri::https://example.org/battery/HPCCluster" -> "uri::https://example.org/battery/ServerRack01"	[label="sdata:hostedOn"];
	"uri::https://example.org/battery/HPCCluster" -> "uri::https://w3id.org/sdata/core/InformationSite"	[label="rdf:type"];
	"lit::HPC Cluster::::"	[color="#B08900",
		fillcolor="#FFF9DB",
		fontcolor="#5C4500",
		label="HPC Cluster",
		shape=note];
	"uri::https://example.org/battery/HPCCluster" -> "lit::HPC Cluster::::"	[label="sdata:name"];
	"uri::https://example.org/battery/ServerRack01" -> "uri::https://w3id.org/sdata/core/MaterialArtifact"	[label="rdf:type"];
	"uri::https://example.org/battery/ServerRack01" -> "uri::https://example.org/battery/DPPUriId"	[label="sdata:hasIdentifier"];
	"uri::https://example.org/battery/ServerRack01" -> "uri::https://example.org/battery/PackAssembly"	[label="sdata:locatedAt"];
	"lit::Server Rack 01::::"	[color="#B08900",
		fillcolor="#FFF9DB",
		fontcolor="#5C4500",
		label="Server Rack 01",
		shape=note];
	"uri::https://example.org/battery/ServerRack01" -> "lit::Server Rack 01::::"	[label="sdata:name"];
	"uri::https://example.org/battery/SimulationReportV3" -> "uri::https://example.org/battery/CrashSimulationV3"	[label="sdata:represents"];
	"uri::https://example.org/battery/SimulationReportV3" -> "uri::https://example.org/battery/HPCCluster"	[label="sdata:hostedAt"];
	"lit::Simulation Report v3::::"	[color="#B08900",
		fillcolor="#FFF9DB",
		fontcolor="#5C4500",
		label="Simulation Report v3",
		shape=note];
	"uri::https://example.org/battery/SimulationReportV3" -> "lit::Simulation Report v3::::"	[label="sdata:name"];
	"lit::3.0::::"	[color="#B08900",
		fillcolor="#FFF9DB",
		fontcolor="#5C4500",
		label=3.0,
		shape=note];
	"uri::https://example.org/battery/SimulationReportV3" -> "lit::3.0::::"	[label="sdata:version"];
	"uri::https://example.org/battery/SimulationReportV3" -> "uri::https://w3id.org/sdata/core/InformationArtifact"	[label="rdf:type"];
	"uri::https://example.org/battery/VoltPackAG"	[color="#1976D2",
		fillcolor="#E3F2FD",
		fontcolor="#0D47A1",
		label="ex:VoltPackAG"];
	"uri::https://example.org/battery/VoltPackAG" -> "uri::https://w3id.org/sdata/core/InformationAgent"	[label="rdf:type"];
	"uri::https://example.org/battery/VoltPackAG" -> "uri::https://example.org/battery/DPPBackend"	[label="sdata:hostedAt"];
	"uri::https://example.org/battery/ManufacturerRole"	[color="#1976D2",
		fillcolor="#E3F2FD",
		fontcolor="#0D47A1",
		label="ex:ManufacturerRole"];
	"uri::https://example.org/battery/VoltPackAG" -> "uri::https://example.org/battery/ManufacturerRole"	[label="sdata:realizes"];
	"lit::VoltPack AG::::"	[color="#B08900",
		fillcolor="#FFF9DB",
		fontcolor="#5C4500",
		label="VoltPack AG",
		shape=note];
	"uri::https://example.org/battery/VoltPackAG" -> "lit::VoltPack AG::::"	[label="sdata:name"];
	"lit::Organization::::"	[color="#B08900",
		fillcolor="#FFF9DB",
		fontcolor="#5C4500",
		label=Organization,
		shape=note];
	"uri::https://example.org/battery/VoltPackAG" -> "lit::Organization::::"	[label="sdata:agentType"];
	"uri::https://example.org/battery/BatteryPack001Serial" -> "lit::2026-01-15T08:00:00Z::http://www.w3.org/2001/XMLSchema#dateTimeStamp::"	[label="sdata:validFrom"];
	"lit::Serial::::"	[color="#B08900",
		fillcolor="#FFF9DB",
		fontcolor="#5C4500",
		label=Serial,
		shape=note];
	"uri::https://example.org/battery/BatteryPack001Serial" -> "lit::Serial::::"	[label="sdata:identifierType"];
	"uri::https://example.org/battery/BatteryPack001Serial" -> "uri::https://w3id.org/sdata/core/Identifier"	[label="rdf:type"];
	"lit::VP-BAT-2026-000001::::"	[color="#B08900",
		fillcolor="#FFF9DB",
		fontcolor="#5C4500",
		label="VP-BAT-2026-000001",
		shape=note];
	"uri::https://example.org/battery/BatteryPack001Serial" -> "lit::VP-BAT-2026-000001::::"	[label="sdata:identifierValue"];
	"uri::https://w3id.org/sdata/core/Material"	[color="#7E57C2",
		fillcolor="#F3E8FF",
		fontcolor="#4527A0",
		label="sdata:Material"];
	"uri::https://example.org/battery/NMC811Cathode" -> "uri::https://w3id.org/sdata/core/Material"	[label="rdf:type"];
	"lit::LiNi0.8Mn0.1Co0.1O2::::"	[color="#B08900",
		fillcolor="#FFF9DB",
		fontcolor="#5C4500",
		label="LiNi0.8Mn0.1Co0.1O2",
		shape=note];
	"uri::https://example.org/battery/NMC811Cathode" -> "lit::LiNi0.8Mn0.1Co0.1O2::::"	[label="sdata:description"];
	"lit::NMC 811 Kathodenmaterial::::"	[color="#B08900",
		fillcolor="#FFF9DB",
		fontcolor="#5C4500",
		label="NMC 811 Kathodenmaterial",
		shape=note];
	"uri::https://example.org/battery/NMC811Cathode" -> "lit::NMC 811 Kathodenmaterial::::"	[label="sdata:name"];
	"uri::https://example.org/battery/RecycledNickel"	[color="#1976D2",
		fillcolor="#E3F2FD",
		fontcolor="#0D47A1",
		label="ex:RecycledNickel"];
	"uri::https://example.org/battery/RecycledNickel" -> "uri::https://example.org/battery/BatteryPack001"	[label="sdata:recoveredFrom"];
	"uri::https://example.org/battery/RecycledNickel" -> "uri::https://w3id.org/sdata/core/Material"	[label="rdf:type"];
	"lit::Recyceltes Nickelsulfat::::"	[color="#B08900",
		fillcolor="#FFF9DB",
		fontcolor="#5C4500",
		label="Recyceltes Nickelsulfat",
		shape=note];
	"uri::https://example.org/battery/RecycledNickel" -> "lit::Recyceltes Nickelsulfat::::"	[label="sdata:name"];
	"uri::https://w3id.org/sdata/core/Role"	[color="#7E57C2",
		fillcolor="#F3E8FF",
		fontcolor="#4527A0",
		label="sdata:Role"];
	"uri::https://example.org/battery/ManufacturerRole" -> "uri::https://w3id.org/sdata/core/Role"	[label="rdf:type"];
	"lit::Hersteller des Battery Packs::::"	[color="#B08900",
		fillcolor="#FFF9DB",
		fontcolor="#5C4500",
		label="Hersteller des Battery Packs",
		shape=note];
	"uri::https://example.org/battery/ManufacturerRole" -> "lit::Hersteller des Battery Packs::::"	[label="sdata:description"];
	"lit::Manufacturer::::"	[color="#B08900",
		fillcolor="#FFF9DB",
		fontcolor="#5C4500",
		label=Manufacturer,
		shape=note];
	"uri::https://example.org/battery/ManufacturerRole" -> "lit::Manufacturer::::"	[label="sdata:roleType"];
	"lit::ProductPassport::::"	[color="#B08900",
		fillcolor="#FFF9DB",
		fontcolor="#5C4500",
		label=ProductPassport,
		shape=note];
	"uri::https://example.org/battery/ProductPassportRole" -> "lit::ProductPassport::::"	[label="sdata:roleType"];
	"uri::https://example.org/battery/ProductPassportRole" -> "uri::https://w3id.org/sdata/core/Role"	[label="rdf:type"];
	"uri::https://example.org/battery/OperatorMueller" -> "uri::https://example.org/battery/PackAssembly"	[label="sdata:locatedAt"];
	"lit::Person::::"	[color="#B08900",
		fillcolor="#FFF9DB",
		fontcolor="#5C4500",
		label=Person,
		shape=note];
	"uri::https://example.org/battery/OperatorMueller" -> "lit::Person::::"	[label="sdata:agentType"];
	"uri::https://example.org/battery/OperatorMueller" -> "uri::https://w3id.org/sdata/core/MaterialAgent"	[label="rdf:type"];
	"lit::Max Mueller::::"	[color="#B08900",
		fillcolor="#FFF9DB",
		fontcolor="#5C4500",
		label="Max Mueller",
		shape=note];
	"uri::https://example.org/battery/OperatorMueller" -> "lit::Max Mueller::::"	[label="sdata:name"];
}
